17

Cl       1.2543348799     -0.0455474926     -0.0808601227                 
C        2.9626808618      0.0038637623     -0.0806202027                 
N        3.5099555273      1.2079894095     -0.0830654981                 
C        4.8319597933      1.1719518557     -0.0827281594                 
O        5.4344206029      2.4116820306     -0.0852550945                 
C        6.8550605639      2.3490198411     -0.0850763387                 
N        5.5795636352      0.0733309730     -0.0802357418                 
C        4.8935460224     -1.0628149121     -0.0779832450                 
O        5.6769974108     -2.1968918526     -0.0753914397                 
C        4.9256785632     -3.4043590656     -0.0736309570                 
N        3.5738365714     -1.1718405502     -0.0780181334                 
H        7.2341872941      3.3756216581     -0.0872627464                 
H        7.2316295914      1.8543475882     -0.9872290597                 
H        7.2315702356      1.8582102861      0.8192014985                 
H        5.6343046483     -4.2382957755     -0.0717624686                 
H        4.3119013697     -3.4920468496     -0.9769237706                 
H        4.3109336047     -3.4888261383      0.8293099679                 
